/*--------------------------------*- C++ -*----------------------------------*\
  =========                 |
  \\      /  F ield         | OpenFOAM: The Open Source CFD Toolbox
   \\    /   O peration     | Website:  https://openfoam.org
    \\  /    A nd           | Version:  6
     \\/     M anipulation  |
\*---------------------------------------------------------------------------*/
FoamFile
{
    version     2.0;
    format      ascii;
    class       polyBoundaryMesh;
    location    "constant/polyMesh";
    object      boundary;
}
// * * * * * * * * * * * * * * * * * * * * * * * * * * * * * * * * * * * * * //

6
(
    top
    {
        type            patch;
        nFaces          40;
        startFace       3120;
    }
    right
    {
        type            patch;
        nFaces          40;
        startFace       3160;
    }
    left
    {
        type            patch;
        nFaces          40;
        startFace       3200;
    }
    bottom
    {
        type            wall;
        inGroups        1(wall);
        nFaces          40;
        startFace       3240;
    }
    front
    {
        type            empty;
        inGroups        1(empty);
        nFaces          1600;
        startFace       3280;
    }
    back
    {
        type            empty;
        inGroups        1(empty);
        nFaces          1600;
        startFace       4880;
    }
)

// ************************************************************************* //
